powerflow/Codes/PF_Formulation/resultados_csv/500bus__17_csca__bus.csv
ID_Barra,Tipo_Barra,Vm_pu,Va_graus,Pg_pu,Qg_pu,Pd_pu,Qd_pu,Slack_QLIM,Slack_VLIM
1,1,1.0130912402774588,-8.588853787940964,0.0,0.0,0.0,0.0,0.0,-3.339352030876947e-5
2,1,1.012512278905107,-8.66053011891359,0.0,0.0,0.428,0.11410000000000001,0.0,-3.3417008866769835e-5
3,1,1.0056934945443368,-9.89254217747208,0.0,0.0,0.0,0.0,0.0,-0.00014602633930832246
4,1,1.0035287249149654,-10.143706949729323,0.0,0.0,1.327,0.3538,0.0,-0.00014640292640649398
5,1,1.0146353383462303,0.9091758502348358,0.0,0.0,0.0,0.0,0.0,-2.6369279999373756e-7
6,1,1.0145876333648631,0.9030693809775808,0.0,0.0,0.03213,0.00857,0.0,-2.6367437135282713e-7
7,1,1.0379946111704506,-4.780817822653502,0.0,0.0,0.0,0.0,0.0,-5.0230753521910265e-5
8,1,1.0288084344906137,-6.548093439916884,0.0,0.0,0.0,0.0,0.0,-0.00011566619415210309
9,2,1.047668616989342,-2.015614673111447,7.718,1.6062122027013386,0.0,0.0,0.0,0.0
10,1,1.0167854253030855,-11.854576716880425,0.0,0.0,0.0,0.0,0.0,-8.804490839688094e-5
11,1,1.0167490291463686,-11.858725859565768,0.0,0.0,0.02472,0.00659,0.0,-8.804852305369268e-5
12,1,0.9923992334448213,-12.725917220949311,0.0,0.0,0.0,0.0,0.0,9.232235135791696e-6
13,1,0.991851994452971,-12.790114460184206,0.0,0.0,0.3716,0.09910000000000001,0.0,9.23858297834226e-6
14,1,1.0304302722486713,-2.4799974918459333,0.0,0.0,0.0,0.0,0.0,4.7219727041025324e-6
15,1,1.0219675964729733,-4.87113784518804,0.0,0.0,0.0,0.0,0.0,4.063655817815492e-6
16,2,1.0395941549290504,0.3645974181823692,4.444,0.7818946223636154,0.0,0.0,0.0,0.0
17,3,1.0393219977883192,0.0,6.473310550034973,1.282422631843366,0.0,0.0,0.0,0.0
18,2,1.0399044063306724,1.81863061889749,1.5759999999999998,0.2078793830933183,0.0,0.0,0.0,0.0
19,1,1.018762472203922,-12.15856586926085,0.0,0.0,0.0,0.0,0.0,-3.820027418555413e-5
20,1,1.018692280441449,-12.167949109606157,0.0,0.0,0.045419999999999995,0.012110000000000001,0.0,-3.820382996242415e-5
21,1,1.0105950879043353,-10.177985739782294,0.0,0.0,0.0,0.0,0.0,-4.531341330771182e-5
22,1,1.0084716863413952,-10.430237028155961,0.0,0.0,1.4869999999999999,0.39649999999999996,0.0,-4.54305531416508e-5
23,1,1.0268375238771044,-5.8692447303586945,0.0,0.0,0.0,0.0,0.0,-2.9461805466690068e-5
24,1,1.0117578396292652,-8.547421289653164,0.0,0.0,0.0,0.0,0.0,-3.544075318165904e-5
25,1,1.0117222848955565,-8.551850817063633,0.0,0.0,0.02283,0.00609,0.0,-3.544229894631302e-5
26,1,1.0114240976370488,-8.590829645394964,0.0,0.0,0.21660000000000001,0.05777,0.0,-3.545592857205805e-5
27,1,1.0126138320058546,-14.112070571007425,0.0,0.0,0.0,0.0,0.0,-3.464043917230617e-13
28,1,1.0115264717142263,-14.245128062136493,0.0,0.0,0.6293,0.1678,0.0,1.3146037793974197e-9
29,1,1.0085423085888414,-12.417560324448962,0.0,0.0,0.0,0.0,0.0,-0.000175907487283694
30,1,1.007052965887119,-12.594317494977474,0.0,0.0,0.9997,0.2666,0.0,-0.00017622717299262282
31,1,1.0324413050038126,-14.906968869180565,0.0,0.0,0.0,0.0,0.0,-1.8011005414604012e-11
32,1,1.0322956153776401,-14.924095553419152,0.0,0.0,0.09765,0.02604,0.0,-1.0648989276691267e-10
33,1,1.0065552611250357,-13.145627085797377,0.0,0.0,0.0,0.0,0.0,-6.750533581006897e-5
34,1,1.0061825028499942,-13.189715444004358,0.0,0.0,0.25,0.06666,0.0,-6.753564867760894e-5
35,1,1.0181906236090326,-13.736787094171167,0.0,0.0,0.0,0.0,0.0,-2.4750743140035106e-6
36,1,1.0175973123460849,-13.805698284992616,0.0,0.0,0.4335,0.11560000000000001,0.0,-2.4770685659846535e-6
37,1,1.0197954100083195,1.284186945189982,0.0,0.0,0.0,0.0,0.0,-4.065757741861462e-6
38,1,1.0197934602646714,1.2839253527000198,0.0,0.0,0.0012900000000000001,0.00034,0.0,-4.065766291480582e-6
39,1,1.0295917239532668,-5.672801592966805,0.0,0.0,0.0,0.0,0.0,-1.868900790073541e-5
40,1,1.0231477508944233,-6.864778685176057,0.0,0.0,0.0,0.0,0.0,-1.895975663136099e-5
41,1,1.0221942545841587,-6.98405064397161,0.0,0.0,0.5799,0.15460000000000002,0.0,-1.8981950284005162e-5
42,1,1.025233899334286,-11.449077513701377,0.0,0.0,0.0,0.0,0.0,-6.041450503946327e-7
43,1,1.0251741219989559,-11.456310844456848,0.0,0.0,0.044610000000000004,0.011899999999999999,0.0,-6.042048200914209e-7
44,1,1.0195099910232894,-7.603261639496035,0.0,0.0,0.0,0.0,0.0,-3.622418449008201e-5
45,1,1.019476837051991,-7.607412762023327,0.0,0.0,0.02031,0.00542,0.0,-3.622564275485623e-5
46,1,0.9981208564517716,-11.06329514142987,0.0,0.0,0.0,0.0,0.0,-0.00014172854972870508
47,1,0.9974572324964152,-11.14557872718162,0.0,0.0,0.4341,0.1158,0.0,-0.00014184605497981874
48,1,1.0014998432124185,-15.948127123649408,0.0,0.0,0.0,0.0,0.0,8.399945378778862e-7
49,2,1.002996978929399,-15.745233163704324,0.013000000000000001,0.004792628268635786,0.0,0.0,0.0,0.0
50,2,1.0029948564552138,-15.708861244434837,0.026000000000000002,0.008084795817363571,0.0,0.0,0.0,0.0
51,1,1.0014940681996118,-15.94883436669643,0.0,0.0,0.0035399999999999997,0.00094,0.0,8.400026522029709e-7
52,1,1.0011464929006313,-15.990590834060853,0.0,0.0,0.2339,0.06237,0.0,8.404909649434079e-7
53,1,1.014442154247124,-11.074271514322946,0.0,0.0,0.0,0.0,0.0,-0.00020563642625873247
54,1,1.01392841906833,-11.130121377590884,0.0,0.0,0.3481,0.09282,0.0,-0.00020575398114507903
55,1,1.0224082209802137,-10.845689732355511,0.0,0.0,0.0,0.0,0.0,4.374373885474538e-6
56,1,1.0223746210636115,-10.849566099270223,0.0,0.0,0.02253,0.00601,0.0,4.37454399493847e-6
57,1,1.0112381952160288,-7.902098529035403,0.0,0.0,0.0,0.0,0.0,1.5182622013910244e-5
58,1,1.0026410398286352,-10.5398692182811,0.0,0.0,0.0,0.0,0.0,1.1559478662906653e-5
59,1,1.000307916685546,-10.836317760329228,0.0,0.0,1.409,0.37579999999999997,0.0,1.1595288925476404e-5
60,1,1.0196291958759625,-7.399825837882277,0.0,0.0,0.0,0.0,0.0,-1.9342524325848878e-5
61,1,1.0196263415012958,-7.400206170398159,0.0,0.0,0.0020399999999999997,0.00054,0.0,-1.9342592682392383e-5
62,1,1.0089898137460702,-9.731116537683043,0.0,0.0,0.0,0.0,0.0,-0.00018934182973313456
63,2,1.0089898137460702,-9.731116537683043,0.0,0.0,0.0,0.0,0.0,0.0
64,1,1.0084607529480283,-9.791787559870313,0.0,0.0,0.3478,0.09273999999999999,0.0,-0.0001894577230064641
65,1,1.026373897279694,-8.705959003413662,0.0,0.0,0.0,0.0,0.0,7.493941642259125e-6
66,1,1.023344647525471,-10.209000354555581,0.0,0.0,0.0,0.0,0.0,5.664326048013409e-6
67,1,1.0232751097903838,-10.21695566772616,0.0,0.0,0.04569,0.01218,0.0,5.664780152722899e-6
68,1,1.0113884324221507,-10.92493333689512,0.0,0.0,0.0,0.0,0.0,2.0748503887719058e-5
69,1,1.0110971100025936,-10.961230572107846,0.0,0.0,0.1696,0.04523,0.0,2.0756336181828373e-5
70,1,0.9952614682596086,-13.02174187419796,0.0,0.0,0.0,0.0,0.0,9.43184019960306e-7
71,2,0.9959789725311241,-12.919246033397688,0.04,0.015094034992527695,0.0,0.0,0.0,0.0
72,2,0.9959935172360413,-12.855127464728744,0.02,0.004660640023430764,0.0,0.0,0.0,0.0
73,2,0.9969060974541809,-12.804951562165435,0.013999999999999999,0.005379991624078958,0.0,0.0,0.0,0.0
74,1,1.0251699521846724,-14.75068138078736,0.0,0.0,0.0,0.0,0.0,-1.0034619062251727e-5
75,1,1.0250936918806786,-14.759881685235221,0.0,0.0,0.05301,0.01414,0.0,-1.0035594137994074e-5
76,1,1.018217569661382,2.166973980354624,0.0,0.0,0.0,0.0,0.0,-3.606818343410323e-6
77,1,1.018109783887644,2.1549592788971834,0.0,0.0,0.06951,0.01854,0.0,-3.607140891037815e-6
78,1,1.0133567655837339,-7.158573948964833,0.0,0.0,0.0,0.0,0.0,5.9798606466766615e-6
79,1,1.0133511064331444,-7.15923527343396,0.0,0.0,0.00381,0.0010199999999999999,0.0,5.9799017948838285e-6
80,1,1.0324709819590436,-8.150279005602293,0.0,0.0,0.0,0.0,0.0,3.359048564060395e-6
81,1,1.0274811780759787,-10.604469634163307,0.0,0.0,0.0,0.0,0.0,7.497610040732218e-7
82,2,1.0398878122983772,-2.136037683963201,3.6189999999999998,0.3876009756498676,0.0,0.0,0.0,0.0
83,1,1.0045380472651242,-13.589999691160697,0.0,0.0,0.0,0.0,0.0,-7.72758432762799e-5
84,1,1.0035492955580652,-13.711642425167058,0.0,0.0,0.6141,0.1638,0.0,-7.737139349463832e-5
85,1,1.0263252793098623,-13.73124490446879,0.0,0.0,0.0,0.0,0.0,-1.3091245370231756e-5
86,1,1.0260349449783377,-13.766916521744347,0.0,0.0,0.1759,0.04691,0.0,-1.3096086868397505e-5
87,1,1.001267252959413,2.9921230159001704,0.0,0.0,0.0,0.0,0.0,-1.3800379448571058e-6
88,1,1.0011846438013277,2.981907135420463,0.0,0.0,0.05253,0.01401,0.0,-1.3801110933222256e-6
89,1,1.018234994895157,-8.9571337283072,0.0,0.0,0.0,0.0,0.0,-0.00014086796360849958
90,1,1.0181436564751092,-8.969257705446834,0.0,0.0,0.05901,0.01574,0.0,-0.00014088454191038237
91,1,1.0123610072636031,-6.39994005016988,0.0,0.0,0.0,0.0,0.0,4.318071899984116e-6
92,1,1.011370773242835,-6.526025045584033,0.0,0.0,0.6503,0.1734,0.0,4.323605003921903e-6
93,1,1.0162202215879217,-4.226455530316534,0.0,0.0,0.0,0.0,0.0,-1.5971935337607327e-5
94,1,1.0161478694783557,-4.23553600780835,0.0,0.0,0.052140000000000006,0.0139,0.0,-1.5973312680983208e-5
95,1,1.0127891874381003,-6.322471011235352,0.0,0.0,0.0,0.0,0.0,4.7259902666375196e-6
96,1,1.012308277040563,-6.381436855777131,0.0,0.0,0.34,0.09066,0.0,4.7288220641054005e-6
97,1,1.004666548633533,-16.55126568610342,0.0,0.0,0.0,0.0,0.0,1.3668562473040013e-7
98,1,1.0040627754203415,-16.632042097118507,0.0,0.0,0.3709,0.09891,0.0,1.370206351403231e-7
99,1,1.022881106231808,-6.910190509963851,0.0,0.0,0.0,0.0,0.0,5.3479332150997965e-6
100,1,1.0226681396282065,-6.935726778436244,0.0,0.0,0.1352,0.03606,0.0,5.349322058385064e-6
101,1,1.0228673312205674,-6.911706323538117,0.0,0.0,0.00891,0.0023799999999999997,0.0,5.348017209096843e-6
102,1,1.0046083236528487,-14.537983874803068,0.0,0.0,0.0,0.0,0.0,2.587004851233936e-6
103,1,1.0039706273397229,-14.619761632224511,0.0,0.0,0.38799999999999996,0.1035,0.0,2.589250560187994e-6
104,1,1.0187524247582092,-15.29697163686748,0.0,0.0,0.0,0.0,0.0,-2.243576895110659e-6
105,1,1.0174278630277225,-15.45557090480708,0.0,0.0,0.8033,0.21420000000000003,0.0,-2.2479120733840767e-6
106,1,1.0208244537683109,-12.633302619978236,0.0,0.0,0.0,0.0,0.0,-1.5724500182703013e-5
107,1,1.0206002278999782,-12.660166847978099,0.0,0.0,0.16,0.042679999999999996,0.0,-1.572883856686614e-5
108,1,1.0154265152072752,-7.891760274795601,0.0,0.0,0.0,0.0,0.0,-1.3094676157325697e-5
109,1,1.0147407858218662,-7.966743202714975,0.0,0.0,0.4758,0.12689999999999999,0.0,-1.310451950589187e-5
110,1,1.0271019770940562,-2.7452013848954766,0.0,0.0,0.0,0.0,0.0,-2.4703523795829134e-10
111,1,1.026179686981596,-2.866012787985924,0.0,0.0,0.6229,0.1661,0.0,3.3970172626249517e-10
112,1,1.0145913661501944,-11.625293057492225,0.0,0.0,0.0,0.0,0.0,-5.387691998518773e-5
113,1,1.0139211729841862,-11.700797561063025,0.0,0.0,0.45990000000000003,0.1226,0.0,-5.391870887170198e-5
114,1,1.0196634622565883,-14.136059898581408,0.0,0.0,0.0,0.0,0.0,-2.8376247665123097e-6
115,1,1.0195938389830752,-14.145056090740267,0.0,0.0,0.05061,0.013500000000000002,0.0,-2.837906580846113e-6
116,1,1.0196204894458036,-14.141654708905682,0.0,0.0,0.030990000000000004,0.00826,0.0,-2.837799327680012e-6
117,1,1.0043194534614364,-12.0860538322373,0.0,0.0,0.0,0.0,0.0,3.629515096271679e-7
118,1,1.0041733411443408,-12.104528844480434,0.0,0.0,0.08832000000000001,0.02355,0.0,3.630886446057225e-7
119,1,0.9874731110948147,-13.07012903681288,0.0,0.0,0.0,0.0,0.0,7.2462397058539775e-6
120,1,0.987032758137339,-13.12428373080649,0.0,0.0,0.3165,0.08439999999999999,0.0,7.250381860352232e-6
121,1,1.0099034358857832,-11.792542337466156,0.0,0.0,0.0,0.0,0.0,-0.00024956909096202155
122,1,1.009066635342484,-11.903507265270738,0.0,0.0,0.5336,0.1423,0.0,-0.0002498454917408908
123,1,1.0307678570471426,-2.186525282453697,0.0,0.0,0.0,0.0,0.0,9.341541342860403e-6
124,1,1.028596167658406,-2.876291878453603,0.0,0.0,0.0,0.0,0.0,7.81270152290632e-6
125,2,1.0307678570471426,-2.186525282453697,0.0,0.0,0.0,0.0,0.0,0.0
126,2,1.0307678570471426,-2.186525282453697,0.0,0.0,0.0,0.0,0.0,0.0
127,2,1.0397984169940506,1.9621538772982428,1.62,0.24171116525419725,0.0,0.0,0.0,0.0
128,2,1.0393921737253795,-0.8180821892385491,1.62,0.568480014815978,0.0,0.0,0.0,0.0
129,1,0.9846390773060031,-13.79813231863976,0.0,0.0,0.0,0.0,0.0,7.930451714572103e-6
130,1,0.9829990248270044,-13.983529061737919,0.0,0.0,1.032,0.2753,0.0,7.946717307709258e-6
131,1,1.0203520959615837,-7.280147084720913,0.0,0.0,0.0,0.0,0.0,-1.907335829419091e-5
132,1,1.0199472315429148,-7.327812991820669,0.0,0.0,0.252,0.06721,0.0,-1.908232202268272e-5
133,1,1.0135141604798483,-6.305324412974755,0.0,0.0,0.0,0.0,0.0,4.506746810420048e-6
134,1,1.0129505381595463,-6.375430135593029,0.0,0.0,0.4265,0.1137,0.0,4.509952638036137e-6
135,1,1.0144690780120562,-9.147581565260317,0.0,0.0,0.0,0.0,0.0,-0.00019665369506781047
136,1,1.0140669959894286,-9.19996139575713,0.0,0.0,0.2676,0.07135,0.0,-0.00019675504546628507
137,1,1.0065283692551672,-12.18539745494249,0.0,0.0,0.0,0.0,0.0,-1.2080055258034828e-5
138,1,1.0052985183598986,-12.347599896443953,0.0,0.0,0.787,0.20989999999999998,0.0,-1.209919174501244e-5
139,1,1.0160570772645245,-7.8715385088308745,0.0,0.0,0.0,0.0,0.0,-1.8651388150178467e-5
140,1,1.016053499681237,-7.871966820323467,0.0,0.0,0.00255,0.00068,0.0,-1.8651464660594993e-5
141,1,1.0008875080559434,-0.24447316232438457,0.0,0.0,0.0,0.0,0.0,-1.9821839072302596e-6
142,1,0.9982919569372045,-0.5435591336060565,0.0,0.0,1.6130000000000002,0.4302,0.0,-1.986101035583459e-6
143,1,1.018880248935939,8.692442901698955,0.0,0.0,0.0,0.0,0.0,-6.110030441645071e-7
144,2,1.0400166888862445,21.223486888234437,6.025,1.1134637952431587,0.0,0.0,0.0,0.0
145,2,1.0400373596988157,11.369387189268062,2.9819999999999998,1.2692145244088024,0.0,0.0,0.0,0.0
146,1,1.0302293285455333,-5.709996963919884,0.0,0.0,0.0,0.0,0.0,-3.799686179723208e-5
147,1,1.0183359531703957,-6.371908500030769,0.0,0.0,0.0,0.0,0.0,-3.061538426283801e-5
148,1,1.017407178965817,-6.491847003376943,0.0,0.0,0.5742,0.1531,0.0,-3.0651390882566544e-5
149,1,1.0241322882002535,-11.436445971852306,0.0,0.0,0.0,0.0,0.0,4.4450328308877047e-7
150,1,1.0241078447778273,-11.439329285160373,0.0,0.0,0.015029999999999998,0.0040100000000000005,0.0,4.445107658772068e-7
151,1,1.0272127354382248,-5.948593601024797,0.0,0.0,0.0,0.0,0.0,-3.88038514467585e-5
152,1,1.0189060180754177,-8.335566485304405,0.0,0.0,0.0,0.0,0.0,-0.00018497323434993096
153,1,1.017658579268883,-8.488505067682702,0.0,0.0,0.9315000000000001,0.2484,0.0,-0.0001852553873398132
154,1,1.0098094112301848,-8.785477363662588,0.0,0.0,0.0,0.0,0.0,-2.9853209854700264e-5
155,1,1.0089241056123652,-8.893099680109287,0.0,0.0,0.6684,0.1782,0.0,-2.98854441192149e-5
156,1,0.9864599940473255,-12.446170981706675,0.0,0.0,0.0,0.0,0.0,-8.255989486248409e-5
157,1,0.9847915730783943,-12.658956609056789,0.0,0.0,1.055,0.2812,0.0,-8.274015338147084e-5
158,1,1.0101848287704638,-11.36047520772893,0.0,0.0,0.0,0.0,0.0,-0.00016037381491447098
159,1,1.0098154077439527,-11.408133308815403,0.0,0.0,0.2285,0.06094,0.0,-0.0001604499736622248
160,1,1.020165933615073,-12.921001896693944,0.0,0.0,0.0,0.0,0.0,3.459768113071307e-7
161,1,1.0197820678831022,-12.969874201605233,0.0,0.0,0.2595,0.06921000000000001,0.0,3.4600583557385746e-7
162,1,1.030518009881891,-5.671485746121233,0.0,0.0,0.0,0.0,0.0,-3.922977862104404e-5
163,1,1.026597310476169,-6.449455723252674,0.0,0.0,0.0,0.0,0.0,-3.889558539050546e-5
164,1,1.0249504195011574,-6.653302855124003,0.0,0.0,0.9815,0.26170000000000004,0.0,-3.897409226266862e-5
165,1,1.0311488825503043,-1.8562413438754704,0.0,0.0,0.0,0.0,0.0,6.713971079403842e-6
166,1,1.0265394085975699,-3.174297024762237,0.0,0.0,0.0,0.0,0.0,5.420916565496175e-6
167,2,1.0396785265579482,0.36490299911688495,1.935,0.40692860134339043,0.0,0.0,0.0,0.0
168,2,1.0398044241243545,1.8113697633166836,1.935,0.2996573119144786,0.0,0.0,0.0,0.0
169,2,1.0397278508816896,3.432853273107636,3.87,0.4742014961938856,0.0,0.0,0.0,0.0
170,1,1.0123054530181987,-6.464305453324451,0.0,0.0,0.0,0.0,0.0,4.696037241982587e-6
171,1,1.0121195838078034,-6.489487789330904,0.0,0.0,0.12380000000000001,0.033,0.0,4.6972149508742785e-6
172,1,1.0050092173864864,-10.799518585411596,0.0,0.0,0.0,0.0,0.0,1.1969846318916176e-5
173,1,1.004962036546768,-10.804771286214704,0.0,0.0,0.031349999999999996,0.00836,0.0,1.1970526618723613e-5
174,1,1.0049076596983633,-10.811464670680596,0.0,0.0,0.07305,0.01948,0.0,1.1971369285368362e-5
175,1,1.0346125908332127,-1.3588830866729114,0.0,0.0,0.0,0.0,0.0,-5.511662776648611e-6
176,1,1.0236116822629768,-0.5230581044613007,0.0,0.0,0.0,0.0,0.0,-5.004064793473552e-6
177,1,1.023480349517765,-0.5398687503706131,0.0,0.0,0.08781,0.02342,0.0,-5.004779001113259e-6
178,1,1.0235100994538797,-0.5341361007895974,0.0,0.0,0.06813,0.01817,0.0,-5.004514655825333e-6
179,1,1.0032733173391402,-12.586507485138746,0.0,0.0,0.0,0.0,0.0,-0.0001817810889388231
180,1,1.0030518724707527,-12.611609793277337,0.0,0.0,0.1414,0.0377,0.0,-0.00018182780645794878
181,1,1.0109768771423238,-16.406893264124705,0.0,0.0,0.0,0.0,0.0,-2.9725827341286785e-13
182,1,1.0096456793467392,-16.57137096189526,0.0,0.0,0.8261,0.22030000000000002,0.0,5.220292409831705e-10
183,1,1.024760924495976,-4.513686668094524,0.0,0.0,0.0,0.0,0.0,-8.865929997252958e-6
184,1,1.024364665016359,-4.560860424572263,0.0,0.0,0.3018,0.08047,0.0,-8.869859953078434e-6
185,1,1.0096379107073101,-7.994051746686591,0.0,0.0,0.0,0.0,0.0,2.9614648242983646e-6
186,1,1.0090172208403758,-8.068424192061544,0.0,0.0,0.4535,0.1209,0.0,2.963788158357351e-6
187,1,1.0174323152287994,-9.34304105351971,0.0,0.0,0.0,0.0,0.0,-0.0001418355131208479
188,1,1.0172688731768371,-9.361190939930104,0.0,0.0,0.1105,0.02946,0.0,-0.00014186130596588635
189,1,1.0278829451035139,-15.033198222159413,0.0,0.0,0.0,0.0,0.0,-5.041674550415788e-6
190,1,1.027678586435425,-15.054767864830977,0.0,0.0,0.1407,0.03752,0.0,-5.042942279907519e-6
191,1,1.0202980983348362,-13.599760664719238,0.0,0.0,0.0,0.0,0.0,-4.219920714961625e-6
192,1,1.0200259797895617,-13.632174875940429,0.0,0.0,0.16440000000000002,0.043840000000000004,0.0,-4.221415291409918e-6
193,1,1.015760516178387,-12.112873429611257,0.0,0.0,0.0,0.0,0.0,-4.510569541453187e-5
194,1,1.0152770191474814,-12.170521490881061,0.0,0.0,0.2869,0.07652,0.0,-4.51321873835791e-5
195,1,1.030536691280019,-5.7012356175339765,0.0,0.0,0.0,0.0,0.0,-3.7257173307461805e-5
196,1,1.0209983341233184,-7.955936087755159,0.0,0.0,0.0,0.0,0.0,-4.086001686228375e-5
197,2,1.0412442780663258,-0.8460979372924516,2.9360000000000004,0.42675113175757107,0.0,0.0,0.0,0.0
198,2,1.0417601076353538,-3.2943277270993163,2.073,0.541824036040506,0.0,0.0,0.0,0.0
199,1,1.0196592792131274,-8.104631642424685,0.0,0.0,0.8639,0.2304,0.0,-4.092139395583569e-5
200,1,1.0219591936545882,-7.205422304030268,0.0,0.0,0.0,0.0,0.0,-3.72963509689261e-5
201,1,1.0218259786667137,-7.2200126790487635,0.0,0.0,0.08889,0.023700000000000002,0.0,-3.730173755879071e-5
202,1,1.0025661696174775,-10.211540084942575,0.0,0.0,0.0,0.0,0.0,1.9175465957356628e-5
203,1,1.0024908810742885,-10.220750907429105,0.0,0.0,0.04689,0.0125,0.0,1.9177302883094723e-5
204,1,1.0018396602848396,-10.309020946646308,0.0,0.0,0.4567,0.12179999999999999,0.0,1.9194604272115553e-5
205,1,1.022087648289378,-14.532418361355354,0.0,0.0,0.0,0.0,0.0,-2.073046686031179e-6
206,1,1.0220475673998046,-14.537172087255414,0.0,0.0,0.03009,0.008020000000000001,0.0,-2.0731660391281193e-6
207,1,1.0217250753054261,-14.57608403614807,0.0,0.0,0.2257,0.06019,0.0,-2.0741378488575445e-6
208,1,1.006692766197789,-14.34370921787512,0.0,0.0,0.0,0.0,0.0,-1.0586880421428167e-11
209,1,1.0054888929653474,-14.504214951740755,0.0,0.0,0.8186,0.2183,0.0,8.736055659755978e-10
210,1,1.0019175334413073,-9.955974771945625,0.0,0.0,0.0,0.0,0.0,-4.650840432138047e-5
211,1,1.0013392366098672,-10.02649152321291,0.0,0.0,0.3428,0.09141,0.0,-4.65415047117465e-5
212,1,1.0203342120249501,-12.741067653964324,0.0,0.0,0.0,0.0,0.0,5.045495835525296e-7
213,1,1.0187874560486478,-12.93008012773971,0.0,0.0,0.9748,0.26,0.0,5.049273722053187e-7
214,1,1.0036894025144392,-13.000552585004991,0.0,0.0,0.0,0.0,0.0,-3.715443965942954e-5
215,1,1.0023402067731402,-13.17659681363081,0.0,0.0,0.8448,0.2253,0.0,-3.7219736374113355e-5
216,1,0.9912224338893921,-13.36465237571631,0.0,0.0,0.0,0.0,0.0,4.146944975926864e-6
217,1,0.9904231083501969,-13.460138720962421,0.0,0.0,0.551,0.1469,0.0,4.151455816356062e-6
218,1,1.0267374786630368,-13.480876949895592,0.0,0.0,0.0,0.0,0.0,6.164413250106178e-8
219,1,1.0267324248994225,-13.481510827252066,0.0,0.0,0.00333,0.00089,0.0,6.164230415343096e-8
220,1,1.0365690540077341,-1.70676272813582,0.0,0.0,0.0,0.0,0.0,-5.72912448264713e-6
221,1,1.021468846143217,-4.818153188000841,0.0,0.0,0.0,0.0,0.0,1.4217792145140504e-5
222,2,1.0365380266209756,-1.6449986186914494,0.052000000000000005,-0.0025499318934363874,0.0,0.0,0.0,0.0
223,2,1.0381939749358111,-1.4149146518862485,0.18,0.052172307083974676,0.0,0.0,0.0,0.0
224,2,1.040495449632758,1.554302349178594,5.112,0.3816853539493066,0.0,0.0,0.0,0.0
225,2,1.0409572052091054,-0.012491137431610351,5.148,0.7369217553655805,0.0,0.0,0.0,0.0
226,1,1.0127620286464463,-6.473230118252409,0.0,0.0,0.0,0.0,0.0,4.620053553702083e-6
227,1,1.0126784887418747,-6.482834097309258,0.0,0.0,0.054240000000000003,0.014459999999999999,0.0,4.620509074670639e-6
228,1,1.0085280193116497,-7.13955346912747,0.0,0.0,0.0,0.0,0.0,1.647256459049715e-7
229,1,1.0076962475091606,-7.2442112796640625,0.0,0.0,0.5409,0.1442,0.0,1.649604434888209e-7
230,1,1.0110261197017625,-11.41326581231144,0.0,0.0,0.0,0.0,0.0,1.5076251542064344e-6
231,2,1.01299192445879,-11.10907906086622,0.028999999999999998,0.010060167810279371,0.0,0.0,0.0,0.0
232,1,1.0309168411442673,-6.580494128180128,0.0,0.0,0.0,0.0,0.0,-6.00560799033689e-5
233,1,1.0184072817371914,-9.90260579196691,0.0,0.0,0.0,0.0,0.0,-0.00014765224652658036
234,1,1.017544603187427,-10.010945482117439,0.0,0.0,0.5996,0.15990000000000001,0.0,-0.00014781184327836584
235,1,1.0300551725132376,-10.493440312935798,0.0,0.0,0.0,0.0,0.0,-1.060395413167711e-5
236,1,1.0228089980975996,-11.703612310952021,0.0,0.0,0.0,0.0,0.0,-2.371690631915861e-5
237,1,1.022766937020046,-11.708310982928971,0.0,0.0,0.027120000000000002,0.0072299999999999994,0.0,-2.37180482014497e-5
238,1,1.008485339223762,-9.696267307363076,0.0,0.0,0.0,0.0,0.0,-0.00016811546084239846
239,1,1.0079111861903034,-9.773067244020641,0.0,0.0,0.39130000000000004,0.10439999999999999,0.0,-0.00016824287765065742
240,1,1.0232991955492783,-14.418240689361935,0.0,0.0,0.0,0.0,0.0,-1.3800206130972483e-5
241,1,1.0229897643770447,-14.459718951033516,0.0,0.0,0.1974,0.05264,0.0,-1.3806036256610168e-5
242,1,1.0037743185052603,-13.732613703956284,0.0,0.0,0.0,0.0,0.0,-0.0007851367670671238
243,1,1.0025903306369788,-13.882764172262124,0.0,0.0,0.7447,0.1986,0.0,-0.0007863259139827005
244,1,1.0078949574564016,-11.088473861558743,0.0,0.0,0.0,0.0,0.0,6.17738830476789e-6
245,1,1.0077259066428752,-11.10846583613722,0.0,0.0,0.1184,0.031560000000000005,0.0,6.178742461363558e-6
246,1,1.031607641051415,-5.438054935978512,0.0,0.0,0.0,0.0,0.0,-2.3482475025984327e-5
247,1,1.0260348099889038,-4.722105600669305,0.0,0.0,0.0,0.0,0.0,-1.20616685812712e-5
248,2,1.031607641051415,-5.438054935978512,0.0,0.0,0.0,0.0,0.0,0.0
249,2,1.031607641051415,-5.438054935978512,0.0,0.0,0.0,0.0,0.0,0.0
250,2,1.031607641051415,-5.438054935978512,0.0,0.0,0.0,0.0,0.0,0.0
251,1,0.9905878299030183,-11.912394542475035,0.0,0.0,0.0,0.0,0.0,-1.8588185552854164e-5
252,1,0.9885475976933381,-12.168456038831517,0.0,0.0,1.187,0.3165,0.0,-1.8636929875912123e-5
253,1,0.9910782931861968,-12.329242566147856,0.0,0.0,0.0,0.0,0.0,6.759217157342953e-6
254,2,0.9910782931861968,-12.329242566147856,0.0,0.0,0.0,0.0,0.0,0.0
255,2,0.9910782931861968,-12.329242566147856,0.0,0.0,0.0,0.0,0.0,0.0
256,2,0.9910782931861968,-12.329242566147856,0.0,0.0,0.0,0.0,0.0,0.0
257,2,0.9910782931861968,-12.329242566147856,0.0,0.0,0.0,0.0,0.0,0.0
258,2,0.9919741616406466,-12.1646786915631,0.011000000000000001,0.003046332141449456,0.0,0.0,0.0,0.0
259,1,0.9909459535951245,-12.345451579776107,0.0,0.0,0.0816,0.02176,0.0,6.760359683101078e-6
260,1,1.0269798295327035,-3.1183498293774705,0.0,0.0,0.0,0.0,0.0,6.608861593378045e-6
261,1,1.0267143004907298,-3.1504525110647394,0.0,0.0,0.1868,0.04982,0.0,6.610963537247581e-6
262,1,1.0300857361263474,-6.854839608010258,0.0,0.0,0.0,0.0,0.0,-7.347564295518423e-5
263,1,1.0198797756466977,-11.07959824601582,0.0,0.0,0.0,0.0,0.0,-0.00021026450298282061
264,2,1.0300857361263474,-6.854839608010258,0.0,0.0,0.0,0.0,0.0,0.0
265,2,1.0300857361263474,-6.854839608010258,0.0,0.0,0.0,0.0,0.0,0.0
266,1,1.018981817357302,-11.190421505451893,0.0,0.0,0.6178,0.1648,0.0,-0.00021049869614792112
267,1,1.0160570840868919,-16.097997807238666,0.0,0.0,0.0,0.0,0.0,-6.306974689080122e-7
268,1,1.014368574691959,-16.321973284780974,0.0,0.0,1.171,0.3124,0.0,-6.329304324555612e-7
269,1,1.0165807012156103,-5.083678595424065,0.0,0.0,0.0,0.0,0.0,-2.1260918117295894e-5
270,1,1.016471407215511,-5.098098152427145,0.0,0.0,0.06801,0.01814,0.0,-2.126385856878864e-5
271,1,1.0294184742986212,-10.681106023812363,0.0,0.0,0.0,0.0,0.0,-1.188479363095721e-5
272,1,1.0239607615428505,-12.40667550021974,0.0,0.0,0.0,0.0,0.0,-2.3582309073834525e-5
273,1,1.023809365109822,-12.426628814719487,0.0,0.0,0.09492,0.025310000000000003,0.0,-2.3587020994810738e-5
274,1,1.026079509478614,-3.5583742516757155,0.0,0.0,0.0,0.0,0.0,-2.825813731152089e-6
275,2,1.026079509478614,-3.5583742516757155,0.0,0.0,0.0,0.0,0.0,0.0
276,1,1.0137974596332802,-11.58547057292401,0.0,0.0,0.0,0.0,0.0,-0.00024360420091573082
277,1,1.0137922850626282,-11.586272349892107,0.0,0.0,0.004050000000000001,0.00108,0.0,-0.00024360568619748136
278,1,1.0137098326062575,-11.597407119902492,0.0,0.0,0.05769,0.01538,0.0,-0.00024363244318107626
279,1,1.0044242924324398,-8.758275333912405,0.0,0.0,0.0,0.0,0.0,-5.343568782459933e-6
280,1,1.004168985346845,-8.786153533832131,0.0,0.0,0.16940000000000002,0.04518,0.0,-5.345056637025355e-6
281,1,0.9942027543198367,-14.680169007524457,0.0,0.0,0.0,0.0,0.0,3.46745765837314e-6
282,1,0.9924172638934483,-14.91675763739861,0.0,0.0,1.173,0.3128,0.0,3.476592783919674e-6
283,1,1.0172881717120315,-12.16411101568072,0.0,0.0,0.0,0.0,0.0,-3.388672174549948e-5
284,1,1.0167388632749708,-12.23313649750516,0.0,0.0,0.3265,0.08706,0.0,-3.3910374094223114e-5
285,1,1.0094905351791401,-13.119223698501694,0.0,0.0,0.0,0.0,0.0,1.0420954372038004e-6
286,1,1.009364505015193,-13.13357957742301,0.0,0.0,0.08268,0.02205,0.0,1.0422915136920312e-6
287,1,1.0117475891359256,-10.383372040759427,0.0,0.0,0.0,0.0,0.0,-0.0002610750772318437
288,1,1.0108697721891906,-10.503273107755573,0.0,0.0,0.5811,0.155,0.0,-0.00026138449097524665
289,1,1.0204879361990287,-4.506994354871185,0.0,0.0,0.0,0.0,0.0,3.383918732757765e-6
290,1,1.020431586970373,-4.514428971870754,0.0,0.0,0.0369,0.00984,0.0,3.384167199205037e-6
291,1,1.0066523774635325,-12.039175247901136,0.0,0.0,0.0,0.0,0.0,-0.00017047382680422806
292,1,1.0065438790678882,-12.052387120937487,0.0,0.0,0.07617,0.02031,0.0,-0.00017049639914508983
293,1,1.0203952082695067,-12.741367453229879,0.0,0.0,0.0,0.0,0.0,-1.714431250249597e-6
294,1,1.0200126658330155,-12.785329107390181,0.0,0.0,0.2561,0.06828000000000001,0.0,-1.715320294495742e-6
295,1,1.0128245202763448,-9.406526337116869,0.0,0.0,0.0,0.0,0.0,2.9261309624083066e-5
296,1,1.0127131280383501,-9.420846333840377,0.0,0.0,0.07788,0.02077,0.0,2.9265559890816996e-5
297,1,1.0192610851781145,-8.590487520541215,0.0,0.0,0.0,0.0,0.0,1.2275223416369452e-5
298,1,1.0157346938917682,-10.01350456731961,0.0,0.0,0.0,0.0,0.0,6.156503289555999e-6
299,1,1.0155180309989698,-10.04174995405951,0.0,0.0,0.1457,0.038849999999999996,0.0,6.158294367906743e-6
300,1,1.0055652316214783,-2.4361943728432407,0.0,0.0,0.0,0.0,0.0,-1.746607673731168e-11
301,2,1.0067236482648227,-2.30469185915086,0.028999999999999998,0.013509989600859433,0.0,0.0,0.0,0.0
302,2,1.0067198362097065,-2.3104169882523706,0.028999999999999998,0.01350998912938835,0.0,0.0,0.0,0.0
303,1,1.004080767978903,-2.624493459827257,0.0,0.0,0.8676,0.2314,0.0,1.0130828592411978e-9
304,1,0.9857627752660012,-13.684193760880696,0.0,0.0,0.0,0.0,0.0,8.14686289058868e-6
305,2,0.9879850047160896,-13.373447039545844,0.01,0.0037379008764837508,0.0,0.0,0.0,0.0
306,2,0.9879678610502585,-13.333862990495595,0.024,0.00828856863976209,0.0,0.0,0.0,0.0
307,1,0.9846230684357816,-13.833247867082555,0.0,0.0,0.7604000000000001,0.2028,0.0,8.15971656870645e-6
308,1,1.0149187504452928,-12.343612035285986,0.0,0.0,0.0,0.0,0.0,3.7033625149314226e-6
309,1,1.0147653434450576,-12.362802049643607,0.0,0.0,0.09029999999999999,0.02408,0.0,3.7040817351412183e-6
310,1,1.001831866954032,-15.675298777479346,0.0,0.0,0.0,0.0,0.0,-4.147925975749271e-11
311,1,1.0011417294000067,-15.760981779313411,0.0,0.0,0.43829999999999997,0.11689999999999999,0.0,3.0829926109225526e-10
312,1,1.0196445467020283,-14.489645702598057,0.0,0.0,0.0,0.0,0.0,-1.186623750153438e-6
313,1,1.0194366966888855,-14.515737742166145,0.0,0.0,0.1244,0.033170000000000005,0.0,-1.187026470022086e-6
314,1,1.01189403954893,-10.379084897241004,0.0,0.0,0.0,0.0,0.0,2.3826189878342706e-5
315,1,1.011888168425973,-10.379799216585859,0.0,0.0,0.00426,0.00114,0.0,2.38263698290204e-5
316,1,1.019250935601035,-0.6484710935434861,0.0,0.0,0.0,0.0,0.0,-1.5626498267197569e-7
317,1,1.0191963046295733,-0.6544043901279678,0.0,0.0,0.03753,0.010009999999999998,0.0,-1.5622754735849392e-7
318,1,1.0220712040466668,-1.5096750567559336,0.0,0.0,0.0,0.0,0.0,-5.5713576927315036e-6
319,2,1.0340751657823368,0.21627375791604875,0.423,0.16108516081922675,0.0,0.0,0.0,0.0
320,1,0.9999053732071137,-13.92976206876894,0.0,0.0,0.0,0.0,0.0,-0.000529070111270255
321,1,0.997495120468506,-14.228001006840342,0.0,0.0,1.504,0.4011,0.0,-0.0005307001899058513
322,1,0.997516931538175,-12.279363467100186,0.0,0.0,0.0,0.0,0.0,8.461467154712843e-6
323,1,0.9968406218766134,-12.355890923413785,0.0,0.0,0.45270000000000005,0.1207,0.0,8.468517418081726e-6
324,1,0.9884524966416803,-13.427891349502664,0.0,0.0,0.0,0.0,0.0,8.261206628915187e-6
325,1,0.9868446103265317,-13.644878332816235,0.0,0.0,1.035,0.2759,0.0,8.28008260461375e-6
326,1,1.011723122941022,-12.777293641223775,0.0,0.0,0.0,0.0,0.0,-0.0002272636118156158
327,1,1.0100122187298173,-12.98379096587529,0.0,0.0,1.2109999999999999,0.32280000000000003,0.0,-0.00022774560296989137
328,1,0.9992431524715093,-11.398924368087751,0.0,0.0,0.0,0.0,0.0,4.741240177044081e-6
329,1,0.9988878627244121,-11.442035273427782,0.0,0.0,0.2602,0.06938,0.0,4.743435667313371e-6
330,1,1.0152727417205971,-7.975037921449581,0.0,0.0,0.0,0.0,0.0,-1.8045558248948235e-5
331,1,1.0143656208249685,-8.093665808323067,0.0,0.0,0.5717,0.1525,0.0,-1.806661650073249e-5
332,1,1.0294037168763626,-5.5992312014505785,0.0,0.0,0.0,0.0,0.0,-1.9744592389037715e-5
333,1,1.0207173282674853,-7.183994979228362,0.0,0.0,0.0,0.0,0.0,-1.8793729662216706e-5
334,1,1.0207099410810936,-7.184827398030186,0.0,0.0,0.00501,0.00134,0.0,-1.8793882374628467e-5
335,1,1.0207045459474045,-7.185548130342911,0.0,0.0,0.00834,0.00222,0.0,-1.879401234348535e-5
336,1,1.016338741824387,-2.804575528749034,0.0,0.0,0.0,0.0,0.0,-8.080939931779013e-6
337,1,1.016249211060668,-2.816389304155915,0.0,0.0,0.05673,0.01513,0.0,-8.081808347271775e-6
338,1,1.0112428120425234,7.39465954659553,0.0,0.0,0.0,0.0,0.0,-6.137886095738351e-7
339,1,1.0101048304980462,7.248024857642074,0.0,0.0,0.7511,0.2003,0.0,-6.137850859033586e-7
340,1,1.0030374376525062,-9.439409624625856,0.0,0.0,0.0,0.0,0.0,-1.1008955070246366e-5
341,1,1.0026400167036829,-9.4902270592716,0.0,0.0,0.2422,0.06459,0.0,-1.1014484291018214e-5
342,1,1.0115763927274106,-12.600106870940548,0.0,0.0,0.0,0.0,0.0,-8.376802086676391e-5
343,1,1.0115383695512528,-12.604994313631686,0.0,0.0,0.02511,0.0067,0.0,-8.377203245853382e-5
344,1,1.0115381501027458,-12.605176221931735,0.0,0.0,0.024300000000000002,0.0064800000000000005,0.0,-8.377215869149524e-5
345,1,1.0004515222098302,-12.79626289154589,0.0,0.0,0.0,0.0,0.0,-0.00020835279362189493
346,1,0.9997818370019694,-12.87906336564683,0.0,0.0,0.4758,0.12689999999999999,0.0,-0.00020852807997075472
347,1,0.9879562431727513,-12.688247425736565,0.0,0.0,0.0,0.0,0.0,2.5775851089700525e-6
348,1,0.9867178062695056,-12.83879846900391,0.0,0.0,0.8640000000000001,0.2304,0.0,2.5818387183943113e-6
349,1,1.0194652523779104,-11.469082338306718,0.0,0.0,0.0,0.0,0.0,-9.011164702071856e-5
350,2,1.0238365479575573,-10.888055028716348,0.15,0.05760000549106599,0.0,0.0,0.0,0.0
351,2,1.0215375840657723,-11.203851728390706,0.062,0.0238100063809956,0.0,0.0,0.0,0.0
352,2,1.0237400376226105,-10.908262496321274,0.14400000000000002,0.05530000577905716,0.0,0.0,0.0,0.0
353,2,1.0398607438324559,-8.621737332185035,0.74,0.28420000529905703,0.0,0.0,0.0,0.0
354,1,1.022563463152395,-7.028578609322994,0.0,0.0,0.0,0.0,0.0,-2.6745638149975536e-5
355,1,1.022233053674786,-7.067708340458359,0.0,0.0,0.1996,0.053239999999999996,0.0,-2.6755627040895895e-5
356,1,1.0040137883151607,-14.955780158767661,0.0,0.0,0.0,0.0,0.0,4.209947573245469e-9
357,1,1.003198074431608,-15.059685095072389,0.0,0.0,0.5573,0.14859999999999998,0.0,4.9535401615576304e-9
358,1,1.002484414250253,-16.16985316721207,0.0,0.0,0.0,0.0,0.0,2.5286534385984973e-7
359,1,1.0022506847335477,-16.197540415200073,0.0,0.0,0.1459,0.038900000000000004,0.0,2.5304518128136676e-7
360,1,1.0018736591947768,-10.12392656179487,0.0,0.0,0.0,0.0,0.0,-3.0602267404199426e-5
361,2,1.0018736591947768,-10.12392656179487,0.0,0.0,0.0,0.0,0.0,0.0
362,2,1.0018736591947768,-10.12392656179487,0.0,0.0,0.0,0.0,0.0,0.0
363,2,1.0018736591947768,-10.12392656179487,0.0,0.0,0.0,0.0,0.0,0.0
364,1,1.0014287896233036,-10.183395998534625,0.0,0.0,0.3044,0.08117,0.0,-3.062027654286271e-5
365,1,1.0074575223048792,-12.031168758644208,0.0,0.0,0.0,0.0,0.0,-0.0001567247978255944
366,1,1.006566479702457,-12.151538942513996,0.0,0.0,0.5649000000000001,0.1506,0.0,-0.00015691317026785936
367,1,1.014983713786335,-6.341412375496542,0.0,0.0,0.0,0.0,0.0,2.4514095611777535e-6
368,1,1.0148286299301617,-6.361006826562644,0.0,0.0,0.11449999999999999,0.030539999999999998,0.0,2.4519003482183327e-6
369,1,1.0184148242732314,-5.324706790951597,0.0,0.0,0.0,0.0,0.0,4.747163994507286e-6
370,1,1.017929553415856,-5.381994996882175,0.0,0.0,0.35600000000000004,0.09494,0.0,4.749926973270697e-6
371,1,1.0296884056646018,-6.425420891868337,0.0,0.0,0.0,0.0,0.0,-4.8509850882298565e-5
372,1,1.01978886273235,-10.00470967922376,0.0,0.0,0.0,0.0,0.0,-5.224752018153621e-5
373,1,1.0193842552872292,-10.052807467808028,0.0,0.0,0.2884,0.07690000000000001,0.0,-5.227277175298561e-5
374,1,1.0043842403957424,-12.482253473290362,0.0,0.0,0.0,0.0,0.0,-0.00016782092526118988
375,1,1.004063067794793,-12.522701347694,0.0,0.0,0.2477,0.06604,0.0,-0.00016788922107676153
376,1,1.0079080794948425,-9.035245193417435,0.0,0.0,0.0,0.0,0.0,-1.650853392717574e-5
377,1,1.0066501731526913,-9.199652152410145,0.0,0.0,0.9039,0.24100000000000002,0.0,-1.6535457404846184e-5
378,1,1.0204884753708012,-1.8424087780913008,0.0,0.0,0.0,0.0,0.0,-6.0867303709221406e-6
379,1,1.0202837104928093,-1.8686295244014726,0.0,0.0,0.1301,0.0347,0.0,-6.08813279930967e-6
380,1,1.0090477102188322,-8.008566871390357,0.0,0.0,0.0,0.0,0.0,2.8391706411773613e-5
381,1,1.0088983004535321,-8.028231205181154,0.0,0.0,0.1013,0.02702,0.0,2.8397334483407114e-5
382,1,1.0065246904877856,-14.79679611539492,0.0,0.0,0.0,0.0,0.0,2.8246040940221e-10
383,1,1.0060795208445774,-14.854902885504288,0.0,0.0,0.2995,0.07986,0.0,7.205057761732637e-10
384,1,0.9949417605924329,-13.199289257192884,0.0,0.0,0.0,0.0,0.0,8.300028713490597e-6
385,1,0.9944227127489444,-13.262836231360536,0.0,0.0,0.36619999999999997,0.09766,0.0,8.305631497508702e-6
386,1,1.0272127673288236,-3.524132402292915,0.0,0.0,0.0,0.0,0.0,7.460103449801036e-6
387,1,1.0211369492592275,-5.269835959853858,0.0,0.0,0.0,0.0,0.0,6.485397928114662e-6
388,2,1.0272127673288236,-3.524132402292915,0.0,0.0,0.0,0.0,0.0,0.0
389,2,1.0272127673288236,-3.524132402292915,0.0,0.0,0.0,0.0,0.0,0.0
390,2,1.0272127673288236,-3.524132402292915,0.0,0.0,0.0,0.0,0.0,0.0
391,2,1.0272127673288236,-3.524132402292915,0.0,0.0,0.0,0.0,0.0,0.0
392,2,1.0272127673288236,-3.524132402292915,0.0,0.0,0.0,0.0,0.0,0.0
393,2,1.0272127673288236,-3.524132402292915,0.0,0.0,0.0,0.0,0.0,0.0
394,2,1.0272127673288236,-3.524132402292915,0.0,0.0,0.0,0.0,0.0,0.0
395,2,1.0272127673288236,-3.524132402292915,0.0,0.0,0.0,0.0,0.0,0.0
396,2,1.0272127673288236,-3.524132402292915,0.0,0.0,0.0,0.0,0.0,0.0
397,1,1.0205906180879183,-5.3393061903655905,0.0,0.0,0.3995,0.1065,0.0,6.4899174563838534e-6
398,1,1.0208871201622007,-5.2967586706949685,0.0,0.0,0.1677,0.04471,0.0,6.487197537158715e-6
399,1,1.023042244485656,-12.6773525483311,0.0,0.0,0.0,0.0,0.0,1.0899523808758505e-7
400,1,1.0226474475835687,-12.72501908282511,0.0,0.0,0.2302,0.061399999999999996,0.0,1.0888949205339021e-7
401,1,1.007780482531115,4.143903210341319,0.0,0.0,0.0,0.0,0.0,-4.664960746541038e-7
402,1,1.006457977297733,3.965442605206976,0.0,0.0,0.8835,0.23559999999999998,0.0,-4.663834757881756e-7
403,1,1.0123775185365975,-12.217401118642872,0.0,0.0,0.0,0.0,0.0,-7.011974735723663e-5
404,1,1.012076680049159,-12.2539090412285,0.0,0.0,0.1977,0.05272,0.0,-7.014521298590809e-5
405,1,1.004853915815822,-3.076261944775879,0.0,0.0,0.0,0.0,0.0,-1.9762926501123223e-6
406,1,1.004773939747954,-3.0863781397408907,0.0,0.0,0.0525,0.013999999999999999,0.0,-1.976432676353214e-6
407,1,1.0345209632240262,-9.052676460865385,0.0,0.0,0.0,0.0,0.0,2.0945698706332317e-6
408,1,1.0280996820570865,-11.161431692608689,0.0,0.0,0.0,0.0,0.0,1.0196011686630317e-6
409,2,1.0345209632240262,-9.052676460865385,0.0,0.0,0.0,0.0,0.0,0.0
410,2,1.0399483335566835,-7.2790345957797635,0.7943000000000001,0.1416525526453903,0.0,0.0,0.0,0.0
411,2,1.0399077240332284,-8.060969530990826,0.7943000000000001,0.23992296203356026,0.0,0.0,0.0,0.0
412,2,1.0399195047555452,-7.915631354236834,0.7943000000000001,0.21043546735642743,0.0,0.0,0.0,0.0
413,2,1.0399462747466899,-7.732635135612965,0.616,0.13831983959193575,0.0,0.0,0.0,0.0
414,2,1.0345209632240262,-9.052676460865385,0.0,0.0,0.0,0.0,0.0,0.0
415,1,1.0072016525380765,-11.36905017865178,0.0,0.0,0.0,0.0,0.0,-0.00024166999426324307
416,1,1.0071090695724108,-11.381702179373779,0.0,0.0,0.060629999999999996,0.01617,0.0,-0.00024169973447932665
417,1,0.9981155390058155,-10.941085580732375,0.0,0.0,0.0,0.0,0.0,-6.169131447759701e-6
418,1,0.9971017860624318,-11.063565359872596,0.0,0.0,0.6362,0.1696,0.0,-6.176709664534985e-6
419,1,1.003039523289666,-15.215045251222447,0.0,0.0,0.0,0.0,0.0,1.8242959565261523e-6
420,1,1.0029578909869765,-15.225768239259066,0.0,0.0,0.05226,0.01394,0.0,1.8245112510612495e-6
421,1,1.0139592669867437,-8.404597684947062,0.0,0.0,0.0,0.0,0.0,-3.008023260349805e-5
422,1,1.0132516157356641,-8.485184942937087,0.0,0.0,0.4918,0.1311,0.0,-3.0104008747157734e-5
423,1,0.9973077740708377,3.3484824272642446,0.0,0.0,0.0,0.0,0.0,-1.138840253871163e-6
424,1,0.9945844711785615,3.0143847255483474,0.0,0.0,1.571,0.4189,0.0,-1.1404144900163403e-6
425,1,1.0183067881869488,-8.873204015025834,0.0,0.0,0.0,0.0,0.0,1.0929580212554382e-5
426,1,1.0121040604383238,-11.176167433406262,0.0,0.0,0.0,0.0,0.0,-6.128532159223131e-12
427,1,1.0118924254435104,-11.19914478309757,0.0,0.0,0.14429999999999998,0.03849,0.0,1.0623482991075713e-10
428,1,1.031029151214644,-5.438799591988979,0.0,0.0,0.0,0.0,0.0,-1.7353893591196096e-5
429,1,1.020623427063149,-7.238792686965978,0.0,0.0,0.0,0.0,0.0,-1.9802820069529395e-5
430,2,1.031276860523058,-5.404798980611177,0.01,0.0038370431811707816,0.0,0.0,0.0,0.0
431,2,1.0314877208496196,-5.3742305064411315,0.033,0.01265700125659782,0.0,0.0,0.0,0.0
432,2,1.0311737037042656,-5.418324090357092,0.012,0.004609972115420334,0.0,0.0,0.0,0.0
433,2,1.0331966730357542,-5.11197907324631,0.067,0.02421637983572973,0.0,0.0,0.0,0.0
434,2,1.0314036353710856,-5.3866137417061415,0.043,0.016509956405111773,0.0,0.0,0.0,0.0
435,2,1.031029151214644,-5.438799591988979,0.0,0.0,0.0,0.0,0.0,0.0
436,2,1.031029151214644,-5.438799591988979,0.0,0.0,0.0,0.0,0.0,0.0
437,2,1.0409711181156218,-3.503484198525928,1.97,0.5794850857471833,0.0,0.0,0.0,0.0
438,2,1.0407720259789897,-3.007773159823042,1.97,0.4337982452138781,0.0,0.0,0.0,0.0
439,2,1.0412329785493657,-3.9167297469129654,1.97,0.7415249096100037,0.0,0.0,0.0,0.0
440,1,1.015983367896314,-7.415228428966772,0.0,0.0,0.0,0.0,0.0,2.068808189720401e-5
441,1,0.9997752394758184,-11.49028565314635,0.0,0.0,0.0,0.0,0.0,1.1955858755131148e-5
442,2,1.015983367896314,-7.415228428966772,0.0,0.0,0.0,0.0,0.0,0.0
443,2,1.015983367896314,-7.415228428966772,0.0,0.0,0.0,0.0,0.0,0.0
444,2,1.015983367896314,-7.415228428966772,0.0,0.0,0.0,0.0,0.0,0.0
445,1,1.0068664297080192,-9.38871571946063,0.0,0.0,0.0,0.0,0.0,-1.410940879537158e-11
446,1,1.0054199021162726,-9.559258421210634,0.0,0.0,0.8868,0.2365,0.0,2.6065378185607347e-10
447,1,1.0124990728893009,-7.862872831407511,0.0,0.0,0.0,0.0,0.0,2.2634288496091044e-5
448,1,1.0115850880559027,-7.981624471707033,0.0,0.0,0.5756,0.1535,0.0,2.266173502131648e-5
449,1,1.0120733189786713,-8.447085701689986,0.0,0.0,0.0,0.0,0.0,-1.6895442979125227e-5
450,1,1.0120577619323787,-8.449087588986044,0.0,0.0,0.01122,0.00299,0.0,-1.6895772136059894e-5
451,1,1.0120432897374076,-8.450862227561986,0.0,0.0,0.022109999999999998,0.0059,0.0,-1.689606829721287e-5
452,1,1.016866382761286,3.4484190176187286,0.0,0.0,0.1116,0.029769999999999998,0.0,-2.975706401707487e-6
453,1,1.0330687353804235,-6.717739799721783,0.0,0.0,0.0,0.0,0.0,-4.825047201532651e-5
454,1,1.014586363324381,-10.986965522939538,0.0,0.0,0.0,0.0,0.0,-0.00014658727030708075
455,2,1.0430851607209504,-6.15216216813361,0.6685,0.6390268609796657,0.0,0.0,0.0,0.0
456,2,1.0429895569254124,-5.536737353170852,1.337,0.6220413516307763,0.0,0.0,0.0,0.0
457,1,1.0225223700768196,-7.124975647909395,0.0,0.0,0.0,0.0,0.0,-0.00013627075596945855
458,2,1.0217428791327958,-2.782358805980783,1.0959999999999999,0.0,0.0,0.0,0.0,0.0
459,1,1.0093884513706364,6.920138275701323,0.0,0.0,0.7447,0.1986,0.0,-6.145012900028179e-7
460,1,1.004876265204313,-9.382955123198554,0.0,0.0,0.2634,0.07025,0.0,-1.4464003304910544e-5
461,1,1.002503500255597,-9.343044969464483,0.0,0.0,0.9172,0.2446,0.0,8.83212669734949e-7
462,1,1.0214982817376266,-7.470677197587892,0.0,0.0,0.0,0.0,0.0,7.730787465909347e-5
463,2,1.0214982817376266,-7.470677197587892,0.0,0.0,0.0,0.0,0.0,0.0
464,1,1.0285385285694497,-5.705333290306111,0.0,0.0,0.0,0.0,0.0,-1.7334003439234517e-5
465,1,1.0245637767429303,-6.7306024721211966,0.0,0.0,0.1252,0.03339,0.0,1.89039003495114e-5
466,1,1.018767037622882,-7.524262790072361,0.0,0.0,0.4334,0.11560000000000001,0.0,-1.962763397854529e-5
467,1,1.0149172926395826,-6.630179619618807,0.0,0.0,0.00807,0.00215,0.0,4.880896593335894e-6
468,1,1.006760640778078,-8.104045772923435,0.0,0.0,0.03762,0.010029999999999999,0.0,-2.288632077541649e-6
469,1,0.9918829345132187,-11.602581148620805,0.0,0.0,1.285,0.3427,0.0,-1.1547610985876408e-5
470,1,1.0162502571633163,-6.234021752858735,0.0,0.0,0.42560000000000003,0.11349999999999999,0.0,5.588977033229526e-6
471,1,1.029365965036315,-5.393699573908935,0.0,0.0,0.0,0.0,0.0,-1.952862288748765e-5
472,1,1.0221750140804224,-6.885914729890228,0.0,0.0,0.4971,0.1326,0.0,-1.1430303241625094e-5
473,1,1.0169409412004655,-5.819637102520768,0.0,0.0,0.00999,0.00266,0.0,4.352688644824504e-6
474,1,1.0015924769505697,-9.57642647927232,0.0,0.0,0.0,0.0,0.0,-3.906541014194942e-6
475,1,1.0176012088708755,-5.764216382605334,0.0,0.0,0.0016200000000000001,0.00043,0.0,-2.6195315590989108e-5
476,1,1.0148499522927523,-11.230224259597023,0.0,0.0,0.5986,0.15960000000000002,0.0,-0.00020467874591084217
477,1,1.0165046451684363,-8.610168844643596,0.0,0.0,0.0,0.0,0.0,4.905236231675221e-5
478,1,1.0174470368612063,-4.193357768583224,0.0,0.0,0.0,0.0,0.0,1.0482932698544397e-5
479,1,1.0336162051395954,-5.3434904624884965,0.0,0.0,0.0,0.0,0.0,-2.3493495713797136e-5
480,2,1.040385942001747,-3.4750306465688623,0.56,0.09929712703736884,0.0,0.0,0.0,0.0
481,2,1.0404415318652092,-4.03075495727624,0.45,0.1256469022853857,0.0,0.0,0.0,0.0
482,2,1.0393499576731215,-4.5911196818319215,0.45,0.17279997393813895,0.0,0.0,0.0,0.0
483,2,1.0402414895993366,-4.067407608362468,0.24,0.06293191478707336,0.0,0.0,0.0,0.0
484,2,1.0394426459305213,-4.532004119943294,0.28,0.10484981977538842,0.0,0.0,0.0,0.0
485,1,1.0106912273325084,-11.825123120392844,0.0,0.0,0.2788,0.07434,0.0,-0.0001758200222087602
486,1,1.013846071560888,-10.955833787074543,0.0,0.0,0.6853,0.18280000000000002,0.0,-0.00017552971403545387
487,1,1.009401408545507,-14.98973767827049,0.0,0.0,0.1167,0.031110000000000002,0.0,4.818441838539271e-7
488,1,0.9901423738607144,-11.79275250674526,0.0,0.0,0.9790000000000001,0.2611,0.0,-6.564286793353505e-5
489,1,1.0233092251163685,-11.433134271589086,0.0,0.0,0.0,0.0,0.0,1.380709726616732e-6
490,1,0.9977959794651283,-12.821902667190953,0.0,0.0,0.2981,0.0795,0.0,7.043174035779022e-7
491,1,1.0145316413122945,-12.883679841365637,0.0,0.0,1.195,0.3187,0.0,-0.00023958105219491424
492,1,1.00440454839957,-3.773799462235525,0.0,0.0,0.5954,0.1588,0.0,-4.50608475613407e-6
493,1,1.0147943411677416,-6.441332374420938,0.0,0.0,0.04047,0.01079,0.0,3.413636818769611e-5
494,2,1.0147943411677416,-6.441332374420938,0.0,0.0,0.0,0.0,0.0,0.0
495,1,1.0095882416311603,-8.802120821378637,0.0,0.0,0.7517,0.2005,0.0,-1.5949059337859868e-5
496,1,1.0126095305020828,7.1880965577148315,0.0,0.0,0.0,0.0,0.0,-6.137515752632329e-7
497,2,1.027009655010248,9.309038772099486,0.6,0.2259584025309315,0.0,0.0,0.0,0.0
498,2,1.0210053018008465,8.345543268634614,0.18,0.06858341304087966,0.0,0.0,0.0,0.0
499,1,1.0028246817152113,-13.130076272778323,0.0,0.0,1.2229999999999999,0.3262,0.0,-0.00012840761001860172
500,1,1.0212949515554917,-11.423549220720469,0.0,0.0,0.0,0.0,0.0,3.1013331689093507e-6
